hipster... hipster...
hipster... hipster...
hipster... hipster...

deploy... deploy...
deploy... deploy...
deploy... deploy...

new line...
new line...
new line...

other line...